Version 4
SHEET 1 880 680
WIRE -32 48 -112 48
WIRE 112 48 48 48
WIRE -192 80 -336 80
WIRE -112 80 -112 48
WIRE -336 96 -336 80
WIRE -192 192 -272 192
WIRE -112 192 -112 80
WIRE -48 192 -112 192
WIRE 112 224 112 48
WIRE 112 224 96 224
WIRE 144 224 112 224
WIRE -48 256 -80 256
WIRE 240 256 240 240
WIRE 336 256 240 256
WIRE 240 272 240 256
WIRE 336 272 336 256
WIRE -272 288 -272 192
WIRE -80 304 -80 256
FLAG 336 272 0
FLAG 240 160 V+
FLAG 240 352 V-
FLAG -16 144 V+
FLAG -80 304 0
FLAG -272 368 0
FLAG -16 304 V-
FLAG -336 176 0
FLAG 144 224 Vo
FLAG -272 192 Vi
SYMBOL voltage 240 144 R0
WINDOW 123 0 0 Left 2
WINDOW 39 0 0 Left 2
SYMATTR InstName V1
SYMATTR Value 12
SYMBOL voltage 240 256 R0
WINDOW 0 24 96 Left 2
WINDOW 3 24 16 Left 2
WINDOW 123 0 0 Left 2
WINDOW 39 0 0 Left 2
SYMATTR InstName V2
SYMATTR Value 12
SYMBOL res -48 64 R270
WINDOW 0 32 56 VTop 2
WINDOW 3 0 56 VBottom 2
SYMATTR InstName R1
SYMATTR Value 10k
SYMBOL res -208 208 R270
WINDOW 0 32 56 VTop 2
WINDOW 3 0 56 VBottom 2
SYMATTR InstName R2
SYMATTR Value 50k
SYMBOL voltage -272 272 R0
WINDOW 123 0 0 Left 2
WINDOW 39 0 0 Left 2
SYMATTR InstName V3
SYMATTR Value SINE(0 10 1 0 0 0 2)
SYMBOL res -208 96 R270
WINDOW 0 32 56 VTop 2
WINDOW 3 0 56 VBottom 2
SYMATTR InstName R3
SYMATTR Value 20k
SYMBOL voltage -336 80 R0
WINDOW 123 0 0 Left 2
WINDOW 39 0 0 Left 2
SYMATTR InstName V4
SYMATTR Value -5
SYMBOL Opamps\\LT6011 -16 224 R0
SYMATTR InstName U2
TEXT -560 472 Left 2 !.tran 0 2 0 .05
