Version 4
SHEET 1 880 680
WIRE -304 128 -352 128
WIRE -352 160 -352 128
WIRE -352 160 -400 160
WIRE -480 240 -528 240
WIRE -352 240 -352 160
WIRE -352 240 -400 240
WIRE -320 240 -352 240
WIRE -224 256 -224 128
WIRE -224 256 -256 256
WIRE -128 256 -224 256
WIRE 240 256 240 240
WIRE 336 256 240 256
WIRE -320 272 -352 272
WIRE 240 272 240 256
WIRE 336 272 336 256
WIRE -528 304 -528 240
WIRE -352 336 -352 272
FLAG 336 272 0
FLAG 240 160 12v
FLAG 240 352 -12v
FLAG -288 224 12v
FLAG -352 336 0
FLAG -528 384 0
FLAG -480 160 -12v
FLAG -288 288 -12v
SYMBOL voltage 240 144 R0
WINDOW 123 0 0 Left 2
WINDOW 39 0 0 Left 2
SYMATTR InstName V1
SYMATTR Value 12
SYMBOL voltage 240 256 R0
WINDOW 0 24 96 Left 2
WINDOW 3 24 16 Left 2
WINDOW 123 0 0 Left 2
WINDOW 39 0 0 Left 2
SYMATTR InstName V2
SYMATTR Value 12
SYMBOL Opamps\\LT1001 -288 192 R0
SYMATTR InstName U1
SYMBOL res -320 144 R270
WINDOW 0 32 56 VTop 2
WINDOW 3 0 56 VBottom 2
SYMATTR InstName R1
SYMATTR Value 10k
SYMBOL res -496 256 R270
WINDOW 0 32 56 VTop 2
WINDOW 3 0 56 VBottom 2
SYMATTR InstName R2
SYMATTR Value 50k
SYMBOL voltage -528 288 R0
WINDOW 123 0 0 Left 2
WINDOW 39 0 0 Left 2
SYMATTR InstName V3
SYMATTR Value SINE(0 12 1 0 0 0 2)
SYMBOL res -496 176 R270
WINDOW 0 32 56 VTop 2
WINDOW 3 0 56 VBottom 2
SYMATTR InstName R3
SYMATTR Value 48k
TEXT -562 470 Left 2 !.tran 0 2 0 .05
