Version 4
SHEET 1 1052 680
WIRE -64 -336 -128 -336
WIRE 80 -336 16 -336
WIRE -208 -304 -352 -304
WIRE -128 -304 -128 -336
WIRE 256 -304 208 -304
WIRE 416 -304 336 -304
WIRE -352 -288 -352 -304
WIRE -208 -192 -256 -192
WIRE -128 -192 -128 -304
WIRE -80 -192 -128 -192
WIRE 576 -176 576 -192
WIRE 576 -176 544 -176
WIRE 80 -160 80 -336
WIRE 80 -160 64 -160
WIRE 112 -160 80 -160
WIRE 208 -160 208 -304
WIRE 208 -160 192 -160
WIRE 240 -160 208 -160
WIRE 576 -160 576 -176
WIRE -256 -144 -256 -192
WIRE -256 -144 -352 -144
WIRE -80 -128 -112 -128
WIRE 416 -128 416 -304
WIRE 416 -128 384 -128
WIRE 464 -128 416 -128
WIRE -112 -96 -112 -128
WIRE 240 -96 208 -96
WIRE 208 -64 208 -96
FLAG 544 -176 0
FLAG 576 -272 V+
FLAG 576 -80 V-
FLAG -48 -240 V+
FLAG -48 -80 V-
FLAG -112 -96 0
FLAG -352 -64 0
FLAG 272 -208 V+
FLAG 272 -48 V-
FLAG 208 -64 0
FLAG 464 -128 Vo
FLAG -256 -192 Vi
FLAG -352 -208 0
SYMBOL voltage 576 -288 R0
WINDOW 123 0 0 Left 2
WINDOW 39 0 0 Left 2
SYMATTR InstName V1
SYMATTR Value 12
SYMBOL voltage 576 -176 R0
WINDOW 123 0 0 Left 2
WINDOW 39 0 0 Left 2
SYMATTR InstName V2
SYMATTR Value 12
SYMBOL res -80 -320 R270
WINDOW 0 32 56 VTop 2
WINDOW 3 0 56 VBottom 2
SYMATTR InstName R1
SYMATTR Value 10k
SYMBOL voltage -352 -160 R0
WINDOW 3 24 152 Left 2
WINDOW 123 24 124 Left 2
WINDOW 39 0 0 Left 2
SYMATTR Value SINE(2.048 2.048 1 .0 0 0)
SYMATTR Value2 AC 2.5
SYMATTR InstName V3
SYMBOL res -224 -176 R270
WINDOW 0 32 56 VTop 2
WINDOW 3 0 56 VBottom 2
SYMATTR InstName R2
SYMATTR Value 10k
SYMBOL res -224 -288 R270
WINDOW 0 32 56 VTop 2
WINDOW 3 0 56 VBottom 2
SYMATTR InstName R3
SYMATTR Value 20k
SYMBOL res 96 -144 R270
WINDOW 0 32 56 VTop 2
WINDOW 3 0 56 VBottom 2
SYMATTR InstName R4
SYMATTR Value 16.9k
SYMBOL res 240 -288 R270
WINDOW 0 32 56 VTop 2
WINDOW 3 0 56 VBottom 2
SYMATTR InstName R5
SYMATTR Value 100k
SYMBOL Opamps\\LT6011 -48 -160 R0
SYMATTR InstName U3
SYMBOL Opamps\\LT6011 272 -128 R0
SYMATTR InstName U4
SYMBOL voltage -352 -304 R0
WINDOW 123 0 0 Left 2
WINDOW 39 0 0 Left 2
WINDOW 3 -120 52 Left 2
SYMATTR Value -4.096
SYMATTR InstName V4
TEXT -344 -392 Left 2 !.tran 0 2 0 .05
