Version 4
SHEET 1 1052 680
WIRE -48 48 -80 48
WIRE 64 48 32 48
WIRE 224 48 192 48
WIRE 320 48 304 48
WIRE -160 144 -192 144
WIRE -48 144 -48 48
WIRE -48 144 -80 144
WIRE -32 144 -48 144
WIRE 64 160 64 48
WIRE 64 160 32 160
WIRE 96 160 64 160
WIRE 192 160 192 48
WIRE 192 160 176 160
WIRE 208 160 192 160
WIRE -32 176 -48 176
WIRE 320 176 320 48
WIRE 320 176 272 176
WIRE 352 176 320 176
WIRE 512 176 512 160
WIRE 512 176 480 176
WIRE 208 192 176 192
WIRE 512 192 512 176
WIRE -48 208 -48 176
WIRE -192 224 -192 144
WIRE 176 224 176 192
FLAG 480 176 0
FLAG 512 80 12v
FLAG 512 272 -12v
FLAG 0 128 12v
FLAG 0 192 -12v
FLAG -48 208 0
FLAG -192 304 0
FLAG -160 48 -12v
FLAG 240 144 12v
FLAG 240 208 -12v
FLAG 176 224 0
FLAG 352 176 Vo
FLAG -192 144 Vi
SYMBOL voltage 512 64 R0
WINDOW 123 0 0 Left 2
WINDOW 39 0 0 Left 2
SYMATTR InstName V1
SYMATTR Value 12
SYMBOL voltage 512 176 R0
WINDOW 123 0 0 Left 2
WINDOW 39 0 0 Left 2
SYMATTR InstName V2
SYMATTR Value 12
SYMBOL Opamps\\LT1001 0 96 R0
SYMATTR InstName U1
SYMBOL res -64 64 R270
WINDOW 0 32 56 VTop 2
WINDOW 3 0 56 VBottom 2
SYMATTR InstName R1
SYMATTR Value 10k
SYMBOL voltage -192 208 R0
WINDOW 3 24 152 Left 2
WINDOW 123 24 124 Left 2
WINDOW 39 0 0 Left 2
SYMATTR InstName V3
SYMATTR Value PULSE(0 4.99 .4 .01 .01 .3 0 1)
SYMATTR Value2 AC 2.5
SYMBOL res -176 160 R270
WINDOW 0 32 56 VTop 2
WINDOW 3 0 56 VBottom 2
SYMATTR InstName R2
SYMATTR Value 10k
SYMBOL res -176 64 R270
WINDOW 0 32 56 VTop 2
WINDOW 3 0 56 VBottom 2
SYMATTR InstName R3
SYMATTR Value 48k
SYMBOL Opamps\\LT1001 240 112 R0
SYMATTR InstName U2
SYMBOL res 80 176 R270
WINDOW 0 32 56 VTop 2
WINDOW 3 0 56 VBottom 2
SYMATTR InstName R4
SYMATTR Value 22.7k
SYMBOL res 208 64 R270
WINDOW 0 32 56 VTop 2
WINDOW 3 0 56 VBottom 2
SYMATTR InstName R5
SYMATTR Value 100k
TEXT -226 358 Left 2 !.tran 0 2 0 .05
